Codigos/Simulacoes/57/FLUXO_NWT_RPHSN_57.txt

  ***************** RESULTADOS - FLUXO DE POTÊNCIA **********************

                      MÉTODO NEWTON RAPHSON              


#####   HORÁRIO   => 01:00
#####   INTERVALO => 1

  NUMEROS DE BARRAS:	57
  NUMEROS DE LINHAS:	80
  QT. ITERAÇÕES:	4

  TENSÃO E POTÊNCIA POR BARRA
 -----------------------------------------------------------
 Barra Tensão  Ângulo      --Carga--       --Gerador-- 
       (pu)    (grau)      MW      MVar     MW      MVar  
 ------------------------------------------------------------
    1  1.040     0.00     8.30     2.50  -374.70   199.94
    2  1.027     2.12     0.40    13.20     0.00   -17.00
    3  1.016     8.63     6.10     3.10    40.00   -10.00
    4  1.013    11.18     0.00     0.00     0.00    -0.00
    5  1.010    15.54     1.90     0.60     0.00    -0.00
    6  1.011    17.75    11.30     0.30    -0.00    -8.00
    7  1.010    21.44     0.00     0.00     0.00    -0.00
    8  1.005    25.49    22.50     3.30   450.00   -68.47
    9  1.004    17.99    18.10     3.90    -0.00    -3.00
   10  1.009    13.03    11.30     4.50     0.00    -0.00
   11  1.005    14.21     0.00     0.00     0.00    -0.00
   12  1.015    11.02    56.50     3.60   129.10    -1.49
   13  1.006    11.30     2.70     0.30     0.00    -0.00
   14  1.004     9.86     1.60     0.80     0.00     0.00
   15  1.012     7.94     3.30     0.80     0.00    -0.00
   16  1.019     7.62     6.50     0.40     0.00     0.00
   17  1.027     3.83     6.30     1.20     0.00     0.00
   18  1.060    10.58     4.10     1.50     0.00     0.00
   19  1.051    10.55     0.50     0.10     0.00    -0.00
   20  1.048    10.63     0.30     0.10     0.00    -0.00
   21  1.088    10.69     0.00     0.00    -0.00     0.00
   22  1.087    10.73     0.00     0.00     0.00     0.00
   23  1.088    10.87     0.90     0.30     0.00     0.00
   24  1.096    13.49     0.00     0.00     0.00     0.00
   25  1.128    12.41     0.90     0.50     0.00     0.00
   26  1.045    14.00     0.00     0.00    -0.00    -0.00
   27  1.048    17.87     1.40     0.10    -0.00     0.00
   28  1.051    19.38     0.70     0.30    -0.00     0.00
   29  1.055    20.34     2.50     0.40     0.00     0.00
   30  1.123    12.19     0.50     0.30     0.00    -0.00
   31  1.113    11.72     0.90     0.40     0.00    -0.00
   32  1.105    11.22     0.20     0.10     0.00    -0.00
   33  1.105    11.21     0.60     0.30     0.00    -0.00
   34  1.080    10.89     0.00     0.00     0.00     0.00
   35  1.079    10.86     0.90     0.40     0.00    -0.00
   36  1.079    10.86     0.00     0.00    -0.00     0.00
   37  1.081    10.76     0.00     0.00     0.00    -0.00
   38  1.087    10.44     2.10     1.10     0.00     0.00
   39  1.080    10.81     0.00     0.00    -0.00     0.00
   40  1.078    10.96     0.00     0.00    -0.00     0.00
   41  1.066    13.17     0.90     0.40    -0.00     0.00
   42  1.067    12.36     1.10     0.70     0.00    -0.00
   43  1.053    13.91     0.30     0.10     0.00     0.00
   44  1.079     9.92     1.80     0.30     0.00    -0.00
   45  1.064     8.91     0.00     0.00    -0.00     0.00
   46  1.106     9.87     0.00     0.00     0.00    -0.00
   47  1.096    10.06     4.50     1.70     0.00    -0.00
   48  1.093    10.24     0.00     0.00     0.00     0.00
   49  1.098    10.60     2.70     1.30     0.00    -0.00
   50  1.092    11.26     3.10     1.60     0.00    -0.00
   51  1.088    12.64     2.70     0.80     0.00    -0.00
   52  1.059    19.28     0.70     0.30    -0.00     0.00
   53  1.062    18.74     3.00     1.50     0.00    -0.00
   54  1.063    18.34     0.60     0.20    -0.00     0.00
   55  1.065    18.01     1.00     0.50    -0.00     0.00
   56  1.072    11.68     1.10     0.30     0.00    -0.00
   57  1.074    11.28     1.00     0.30     0.00    -0.00

             Total->    197.80    54.40   244.40    91.99

  CORRENTE e FLUXO DE POTÊNCIA POR LINHA
-----------------------------------------------------------------------------------------
 De Para  I(pu) Ângulo     FLUXO DIRETO     FLUXO INVERSO      PERDAS
                (grau)     MW   -> MVar     MW   <- MVar    MW      MVar 
-----------------------------------------------------------------------------------------
  1   2   1.347 -145.37 -115.30   79.64  116.90  -88.03    1.60   -8.39
  2   3   1.274 -151.64 -117.30   57.83  122.28  -52.15    4.98    5.68
  3   4   1.175 -150.52 -111.52   42.47  113.09  -41.27    1.56    1.20
  4   5   0.521 -140.58  -46.48   24.96   48.21  -23.94    1.74    1.03
  4   6   0.746 -149.55  -71.36   24.95   73.79  -20.14    2.43    4.81
  6   7   0.624 -149.88  -61.58   13.51   62.37  -12.32    0.79    1.19
  6   8   0.766 -146.52  -74.54   21.00   76.56  -15.44    2.02    5.56
  8   9   2.555   32.85  254.66  -32.88 -248.22   60.24    6.45   27.35
  9  10   0.513   33.51   49.64  -13.79  -48.68   13.66    0.95   -0.12
  9  11   0.752   34.93   72.17  -21.97  -70.73   24.52    1.45    2.55
  9  12   0.419   37.32   39.70  -13.93  -38.62   10.97    1.08   -2.95
  9  13   0.715   34.13   68.95  -19.95  -66.52   23.82    2.42    3.86
 13  14   0.560   25.47   54.58  -13.78  -54.17   14.02    0.41    0.24
 13  15   0.660   34.31   61.10  -25.94  -59.94   27.34    1.16    1.39
  1  15   1.539 -155.73 -145.92   65.79  150.25  -54.03    4.34   11.76
  1  16   0.645 -157.50  -61.93   25.66   63.89  -22.58    1.95    3.07
  1  17   0.629 -156.24  -59.85   26.35   60.81  -25.05    0.96    1.30
  3  15   0.230   17.03   23.14   -3.42  -23.06   -1.90    0.08   -5.32
  4  18   0.035   65.39    2.08   -2.89   -2.08    2.96    0.00    0.06
  4  18   0.063   76.32    2.67   -5.76   -2.67    5.92    0.00    0.16
  5   6   0.547 -139.49  -50.11   23.34   51.03  -22.67    0.91    0.67
  7   8   0.981 -141.93  -94.93   28.36   96.28  -23.44    1.35    4.92
 10  12   0.285   37.87   26.09  -12.08  -25.88    9.70    0.21   -2.38
 11  13   0.668   31.28   64.20  -19.72  -63.21   21.06    0.99    1.34
 12  13   0.145  -91.95   -3.30   14.34    3.36  -20.33    0.05   -5.99
 12  16   0.730   26.77   71.34  -20.12  -70.39   22.18    0.95    2.07
 12  17   0.708   27.17   69.06  -19.99  -67.11   23.85    1.96    3.86
 14  15   0.610   40.10   52.94  -30.86  -52.31   31.37    0.63    0.51
 18  19   0.010  -42.13    0.65    0.86   -0.65   -0.85    0.00    0.01
 19  20   0.007  -68.34    0.15    0.75   -0.15   -0.75    0.00    0.00
 21  20   0.006   87.19    0.15   -0.64   -0.15    0.65   -0.00    0.00
 21  22   0.006  -92.81   -0.15    0.64    0.15   -0.64    0.00    0.00
 22  23   0.157 -143.20  -15.36    7.51   15.38   -7.48    0.02    0.04
 23  24   0.164 -145.34  -16.28    7.18   16.74   -7.48    0.45   -0.30
 24  25   0.033   70.01    1.98   -2.99   -1.98    3.11    0.00    0.13
 24  25   0.031   70.01    1.90   -2.87   -1.90    2.99    0.00    0.12
 24  26   0.224 -133.61  -20.61   13.33   20.61  -13.08    0.00    0.26
 26  27   0.234 -133.61  -20.61   13.07   21.51  -11.69    0.90    1.39
 27  28   0.245 -135.30  -22.91   11.59   23.28  -11.02    0.37    0.57
 28  29   0.250 -136.54  -23.98   10.72   24.24  -10.35    0.26    0.37
  7  29   0.359   47.67   32.56  -16.04  -32.56   16.82   -0.00    0.78
 25  30   0.028   -4.52    2.97    0.91   -2.96   -0.89    0.01    0.02
 30  31   0.023   -1.27    2.46    0.59   -2.45   -0.56    0.02    0.03
 31  32   0.014    5.65    1.55    0.16   -1.54   -0.15    0.01    0.01
 32  33   0.006  -15.35    0.60    0.30   -0.60   -0.30    0.00    0.00
 34  32   0.007 -150.00   -0.74    0.26    0.74   -0.25    0.00    0.00
 34  35   0.007   30.00    0.74   -0.26   -0.74   -0.12    0.00   -0.37
 35  36   0.003  130.92   -0.16   -0.28    0.16    0.10    0.00   -0.19
 36  37   0.048   88.74    1.09   -5.08   -1.08    5.09    0.01    0.01
 37  38   0.070   86.99    1.81   -7.40   -1.78    7.21    0.03   -0.19
 37  39   0.022  -96.76   -0.73    2.31    0.73   -2.31    0.00    0.00
 36  40   0.048  -93.27   -1.26    4.99    1.26   -4.98    0.01    0.01
 22  38   0.153   35.05   15.20   -6.87  -15.16    6.94    0.05    0.07
 11  41   0.033   48.26    2.72   -1.84   -2.72    1.91    0.00    0.07
 41  42   0.037   47.09    3.25   -2.18   -3.22    2.23    0.03    0.05
 41  43   0.044 -124.66   -3.51    3.18    3.51   -3.10    0.00    0.08
 38  44   0.191   -0.94   20.34    4.10  -20.23   -4.12    0.11   -0.02
 15  45   0.184  176.85  -18.24   -3.58   18.24    3.90    0.00    0.32
 14  46   0.160  -81.47   -0.37   16.04    0.37  -15.89   -0.00    0.15
 46  47   0.144  -81.47   -0.37   15.89    0.42  -16.13    0.05   -0.24
 47  48   0.139  -98.77   -4.92   14.43    4.96  -14.38    0.04    0.05
 48  49   0.055 -175.50   -5.95   -0.60    5.97    0.06    0.02   -0.54
 49  50   0.094 -110.01   -5.28    8.92    5.35   -8.81    0.07    0.11
 50  51   0.102 -128.27   -8.45    7.21    8.59   -6.98    0.14    0.23
 10  51   0.127   41.33   11.29   -6.08  -11.29    6.18    0.00    0.10
 13  49   0.168  -50.43    8.00   14.87   -8.00  -14.44   -0.00    0.43
 29  52   0.085   70.10    5.82   -6.88   -5.71    7.01    0.11    0.14
 52  53   0.084   74.84    5.01   -7.31   -4.96    7.38    0.05    0.07
 53  54   0.025   60.83    1.96   -1.77   -1.95    1.78    0.01    0.01
 54  55   0.023   74.15    1.35   -1.98   -1.34    2.00    0.01    0.01
 11  43   0.048   52.11    3.81   -2.97   -3.81    3.00    0.00    0.03
 44  45   0.174   -1.77   18.43    3.82  -18.24   -3.90    0.19   -0.08
 40  56   0.048  -93.27   -1.26    4.98    1.26   -4.73    0.00    0.25
 56  41   0.037 -109.04   -2.01    3.38    2.08   -3.31    0.07    0.07
 56  42   0.034 -113.49   -2.09    2.97    2.12   -2.93    0.02    0.04
 39  57   0.022  -96.76   -0.73    2.31    0.73   -2.24   -0.00    0.07
 57  56   0.024 -120.44   -1.73    1.94    1.74   -1.92    0.01    0.02
 38  49   0.059  146.11   -4.56   -4.46    4.60    4.16    0.04   -0.30
 38  48   0.137  104.04   -0.93  -14.89    0.99   14.98    0.06    0.09
  9  55   0.025  -79.73   -0.34    2.50    0.34   -2.50   -0.00    0.01
                                        Total Perdas ->   46.60   63.44

  ***************** RESULTADOS - FLUXO DE POTÊNCIA **********************

                      MÉTODO NEWTON RAPHSON              


#####   HORÁRIO   => 02:00
#####   INTERVALO => 2

  NUMEROS DE BARRAS:	57
  NUMEROS DE LINHAS:	80
  QT. ITERAÇÕES:	4

  TENSÃO E POTÊNCIA POR BARRA
 -----------------------------------------------------------
 Barra Tensão  Ângulo      --Carga--       --Gerador-- 
       (pu)    (grau)      MW      MVar     MW      MVar  
 ------------------------------------------------------------
    1  1.040     0.00     7.70     2.40  -403.11   212.21
    2  1.026     2.25     0.40    12.30     0.00   -17.00
    3  1.015     9.20     5.70     2.90    45.40   -10.00
    4  1.013    11.84     0.00     0.00     0.00    -0.00
    5  1.010    16.33     1.80     0.60     0.00    -0.00
    6  1.011    18.59    10.50     0.30    -0.00    -8.00
    7  1.010    22.37     0.00     0.00     0.00     0.00
    8  1.005    26.48    21.00     3.10   450.00   -70.37
    9  1.005    19.01     8.50     1.80    -0.00    -3.00
   10  1.009    13.92    11.90     4.80     0.00    -0.00
   11  1.005    15.10     0.00     0.00     0.00    -0.00
   12  1.015    11.87    52.80     3.40   136.00    -2.07
   13  1.005    12.08     2.50     0.30     0.00    -0.00
   14  1.004    10.55     1.50     0.70     0.00     0.00
   15  1.012     8.49     3.10     0.70     0.00    -0.00
   16  1.019     8.24     6.00     0.40     0.00     0.00
   17  1.026     4.15     5.90     1.10     0.00     0.00
   18  1.059    11.28     3.80     1.40     0.00     0.00
   19  1.051    11.28     0.50     0.10     0.00    -0.00
   20  1.048    11.36     0.30     0.10     0.00    -0.00
   21  1.088    11.45     0.00     0.00    -0.00     0.00
   22  1.087    11.48     0.00     0.00     0.00     0.00
   23  1.088    11.63     0.90     0.30     0.00     0.00
   24  1.096    14.32     0.00     0.00     0.00     0.00
   25  1.129    13.25     0.90     0.40     0.00     0.00
   26  1.044    14.84     0.00     0.00    -0.00    -0.00
   27  1.048    18.78     1.30     0.10    -0.00     0.00
   28  1.051    20.31     0.60     0.30    -0.00     0.00
   29  1.055    21.28     2.40     0.40     0.00     0.00
   30  1.124    13.04     0.50     0.30     0.00    -0.00
   31  1.114    12.58     0.80     0.40     0.00    -0.00
   32  1.106    12.07     0.20     0.10     0.00    -0.00
   33  1.105    12.07     0.50     0.30     0.00    -0.00
   34  1.080    11.68     0.00     0.00     0.00     0.00
   35  1.080    11.64     0.80     0.40     0.00    -0.00
   36  1.080    11.64     0.00     0.00    -0.00     0.00
   37  1.081    11.54     0.00     0.00     0.00    -0.00
   38  1.086    11.19     2.00     1.00     0.00     0.00
   39  1.080    11.58     0.00     0.00    -0.00     0.00
   40  1.078    11.74     0.00     0.00    -0.00     0.00
   41  1.066    14.05     0.90     0.40    -0.00     0.00
   42  1.067    13.24     1.00     0.60     0.00    -0.00
   43  1.054    14.79     0.30     0.10     0.00     0.00
   44  1.078    10.63     1.70     0.30     0.00    -0.00
   45  1.063     9.53     0.00     0.00    -0.00     0.00
   46  1.105    10.59     0.00     0.00     0.00    -0.00
   47  1.095    10.80     4.20     1.60     0.00    -0.00
   48  1.093    10.99     0.00     0.00     0.00     0.00
   49  1.098    11.37     2.50     1.20     0.00    -0.00
   50  1.092    12.08     2.90     1.50     0.00     0.00
   51  1.089    13.52     2.50     0.70     0.00    -0.00
   52  1.060    20.24     0.70     0.30    -0.00     0.00
   53  1.063    19.72     2.80     1.40     0.00    -0.00
   54  1.064    19.34     0.60     0.20    -0.00     0.00
   55  1.066    19.03     1.00     0.50    -0.00     0.00
   56  1.072    12.53     1.10     0.30     0.00    -0.00
   57  1.074    12.14     0.90     0.30     0.00    -0.00

             Total->    177.90    49.80   228.29   101.77

  CORRENTE e FLUXO DE POTÊNCIA POR LINHA
-----------------------------------------------------------------------------------------
 De Para  I(pu) Ângulo     FLUXO DIRETO     FLUXO INVERSO      PERDAS
                (grau)     MW   -> MVar     MW   <- MVar    MW      MVar 
-----------------------------------------------------------------------------------------
  1   2   1.428 -145.88 -122.99   83.33  124.77  -91.07    1.79   -7.74
  2   3   1.360 -151.48 -125.17   61.77  130.84  -54.13    5.67    7.64
  3   4   1.214 -149.84 -115.14   44.09  116.81  -42.54    1.67    1.55
  4   5   0.536 -139.96  -47.85   25.66   49.69  -24.41    1.84    1.25
  4   6   0.768 -148.92  -73.37   25.61   75.94  -20.32    2.57    5.29
  6   7   0.638 -149.11  -63.02   13.73   63.84  -12.35    0.82    1.38
  6   8   0.780 -145.71  -75.88   21.33   77.97  -15.40    2.10    5.93
  8   9   2.545   34.24  253.42  -34.55 -247.03   61.64    6.39   27.08
  9  10   0.527   33.86   51.13  -13.55  -50.12   13.66    1.00    0.10
  9  11   0.778   35.22   75.04  -21.82  -73.49   24.71    1.55    2.89
  9  12   0.429   37.63   40.82  -13.75  -39.69   11.03    1.13   -2.72
  9  13   0.741   34.41   71.78  -19.77  -69.17   24.23    2.61    4.46
 13  14   0.593   25.88   57.91  -14.23  -57.45   14.64    0.46    0.41
 13  15   0.702   34.03   65.43  -26.38  -64.12   28.26    1.31    1.89
  1  15   1.644 -155.75 -155.93   70.24  160.87  -55.37    4.94   14.86
  1  16   0.697 -157.44  -66.93   27.81   69.21  -23.26    2.28    4.55
  1  17   0.682 -156.36  -64.96   28.44   66.09  -26.38    1.13    2.06
  3  15   0.238   16.00   24.00   -2.86  -23.91   -2.43    0.09   -5.29
  4  18   0.035   68.41    1.93   -2.93   -1.93    2.99   -0.00    0.06
  4  18   0.062   78.75    2.47   -5.80   -2.47    5.96    0.00    0.16
  5   6   0.562 -138.85  -51.49   23.81   52.45  -23.04    0.96    0.78
  7   8   0.994 -141.06  -96.22   28.62   97.60  -23.52    1.38    5.10
 10  12   0.290   38.25   26.70  -12.07  -26.47    9.73    0.22   -2.34
 11  13   0.694   31.60   66.90  -19.83  -65.83   21.43    1.07    1.60
 12  13   0.139  -82.85   -1.16   14.09    1.21  -20.09    0.05   -6.00
 12  16   0.778   26.71   76.29  -20.21  -75.21   22.86    1.08    2.65
 12  17   0.758   27.04   74.23  -20.12  -71.99   25.28    2.24    5.16
 14  15   0.649   39.33   57.12  -31.38  -56.40   32.15    0.71    0.78
 18  19   0.010  -43.85    0.61    0.87   -0.60   -0.86    0.00    0.01
 19  20   0.007  -71.13    0.10    0.76   -0.10   -0.76    0.00    0.00
 21  20   0.006   84.56    0.20   -0.66   -0.20    0.66   -0.00    0.00
 21  22   0.006  -95.44   -0.20    0.66    0.20   -0.66    0.00    0.00
 22  23   0.161 -142.49  -15.77    7.70   15.80   -7.66    0.03    0.04
 23  24   0.168 -144.57  -16.70    7.36   17.18   -7.63    0.48   -0.26
 24  25   0.033   71.65    1.95   -3.03   -1.95    3.16    0.00    0.13
 24  25   0.032   71.65    1.87   -2.92   -1.87    3.04    0.00    0.12
 24  26   0.228 -132.79  -20.99   13.58   20.99  -13.31   -0.00    0.27
 26  27   0.238 -132.79  -20.99   13.31   21.93  -11.87    0.93    1.44
 27  28   0.249 -134.35  -23.23   11.77   23.61  -11.18    0.38    0.59
 28  29   0.253 -135.49  -24.21   10.88   24.48  -10.51    0.27    0.37
  7  29   0.359   49.05   32.38  -16.27  -32.38   17.05   -0.00    0.78
 25  30   0.027   -4.19    2.91    0.92   -2.91   -0.90    0.01    0.01
 30  31   0.022   -0.98    2.41    0.60   -2.39   -0.58    0.02    0.02
 31  32   0.014    6.24    1.59    0.18   -1.58   -0.16    0.01    0.02
 32  33   0.005  -18.90    0.50    0.30   -0.50   -0.30    0.00    0.00
 34  32   0.008 -152.71   -0.88    0.25    0.88   -0.24    0.00    0.01
 34  35   0.008   27.29    0.88   -0.25   -0.88   -0.13    0.00   -0.37
 35  36   0.003   85.64    0.08   -0.27   -0.08    0.09    0.00   -0.19
 36  37   0.049   85.49    1.47   -5.07   -1.46    5.08    0.01    0.01
 37  38   0.072   84.13    2.31   -7.38   -2.28    7.19    0.03   -0.18
 37  39   0.023  -98.81   -0.85    2.30    0.85   -2.30    0.00    0.00
 36  40   0.048  -93.94   -1.39    4.98    1.40   -4.97    0.01    0.01
 22  38   0.157   35.82   15.57   -7.05  -15.53    7.12    0.05    0.07
 11  41   0.033   49.37    2.75   -1.87   -2.75    1.95   -0.00    0.07
 41  42   0.037   48.62    3.25   -2.24   -3.22    2.29    0.03    0.05
 41  43   0.045 -123.65   -3.55    3.23    3.55   -3.14    0.00    0.08
 38  44   0.202    0.80   21.57    3.96  -21.45   -3.95    0.12    0.00
 15  45   0.196  178.87  -19.54   -3.31   19.54    3.68    0.00    0.36
 14  46   0.160  -83.61   -1.16   16.04    1.16  -15.88   -0.00    0.15
 46  47   0.144  -83.61   -1.16   15.88    1.21  -16.13    0.05   -0.24
 47  48   0.142  -99.64   -5.41   14.53    5.45  -14.48    0.04    0.05
 48  49   0.059 -173.46   -6.40   -0.50    6.43   -0.03    0.03   -0.53
 49  50   0.098 -111.68   -5.89    9.06    5.97   -8.93    0.08    0.12
 50  51   0.106 -127.95   -8.87    7.43    9.03   -7.19    0.16    0.25
 10  51   0.131   42.89   11.53   -6.38  -11.53    6.49   -0.00    0.11
 13  49   0.167  -49.59    7.95   14.74   -7.95  -14.31   -0.00    0.42
 29  52   0.084   72.86    5.51   -6.94   -5.41    7.07    0.10    0.13
 52  53   0.083   77.70    4.71   -7.37   -4.65    7.44    0.05    0.07
 53  54   0.024   62.56    1.85   -1.72   -1.84    1.73    0.01    0.01
 54  55   0.022   76.58    1.24   -1.93   -1.23    1.94    0.01    0.01
 11  43   0.049   53.15    3.85   -3.01   -3.85    3.04    0.00    0.03
 44  45   0.186    0.16   19.75    3.65  -19.54   -3.68    0.22   -0.03
 40  56   0.048  -93.94   -1.40    4.97    1.40   -4.72    0.00    0.25
 56  41   0.037 -108.66   -2.06    3.41    2.14   -3.33    0.08    0.08
 56  42   0.034 -114.34   -2.20    2.93    2.22   -2.89    0.02    0.04
 39  57   0.023  -98.81   -0.85    2.30    0.85   -2.23   -0.00    0.07
 57  56   0.024 -120.12   -1.75    1.93    1.76   -1.92    0.01    0.02
 38  49   0.060  149.22   -4.87   -4.38    4.91    4.09    0.04   -0.30
 38  48   0.137  104.60   -0.89  -14.89    0.95   14.98    0.06    0.09
  9  55   0.024  -76.46   -0.23    2.45    0.23   -2.44   -0.00    0.01
                                        Total Perdas ->   50.39   77.83

  ***************** RESULTADOS - FLUXO DE POTÊNCIA **********************

                      MÉTODO NEWTON RAPHSON              


#####   HORÁRIO   => 03:00
#####   INTERVALO => 3

  NUMEROS DE BARRAS:	57
  NUMEROS DE LINHAS:	80
  QT. ITERAÇÕES:	4

  TENSÃO E POTÊNCIA POR BARRA
 -----------------------------------------------------------
 Barra Tensão  Ângulo      --Carga--       --Gerador-- 
       (pu)    (grau)      MW      MVar     MW      MVar  
 ------------------------------------------------------------
    1  1.040     0.00     8.30     2.50  -381.57   203.84
    2  1.026     2.16     0.40    13.20     0.00   -17.00
    3  1.015     8.79     6.10     3.10    40.00   -10.00
    4  1.012    11.39     0.00     0.00     0.00    -0.00
    5  1.010    15.83     1.90     0.60     0.00    -0.00
    6  1.011    18.07    11.30     0.30    -0.00    -8.00
    7  1.010    21.83     0.00     0.00     0.00     0.00
    8  1.005    25.93    22.50     3.30   450.00   -70.47
    9  1.005    18.50     4.80     1.00    -0.00    -3.00
   10  1.008    13.30    12.30     4.90     0.00    -0.00
   11  1.005    14.57     0.00     0.00     0.00    -0.00
   12  1.015    11.19    56.50     3.60   125.30     0.07
   13  1.006    11.55     2.70     0.30     0.00    -0.00
   14  1.004    10.08     1.60     0.80     0.00     0.00
   15  1.012     8.11     3.30     0.80     0.00    -0.00
   16  1.019     7.74     6.50     0.40     0.00     0.00
   17  1.027     3.89     6.30     1.20     0.00     0.00
   18  1.059    10.79     4.10     1.50     0.00     0.00
   19  1.051    10.78     0.50     0.10     0.00    -0.00
   20  1.048    10.86     0.30     0.10     0.00    -0.00
   21  1.088    10.93     0.00     0.00    -0.00     0.00
   22  1.087    10.97     0.00     0.00     0.00     0.00
   23  1.087    11.12     0.90     0.30     0.00     0.00
   24  1.095    13.78     0.00     0.00     0.00     0.00
   25  1.128    12.69     0.90     0.50     0.00     0.00
   26  1.044    14.30     0.00     0.00    -0.00    -0.00
   27  1.047    18.23     1.40     0.10    -0.00     0.00
   28  1.051    19.76     0.70     0.30    -0.00     0.00
   29  1.055    20.73     2.50     0.40     0.00     0.00
   30  1.123    12.47     0.50     0.30     0.00    -0.00
   31  1.113    11.99     0.90     0.40     0.00    -0.00
   32  1.105    11.48     0.20     0.10     0.00    -0.00
   33  1.104    11.47     0.60     0.30     0.00    -0.00
   34  1.079    11.14     0.00     0.00     0.00     0.00
   35  1.079    11.11     0.90     0.40     0.00    -0.00
   36  1.079    11.11     0.00     0.00    -0.00     0.00
   37  1.081    11.01     0.00     0.00     0.00    -0.00
   38  1.086    10.68     2.10     1.10     0.00     0.00
   39  1.080    11.05     0.00     0.00    -0.00     0.00
   40  1.077    11.21     0.00     0.00    -0.00     0.00
   41  1.066    13.50     0.90     0.40    -0.00     0.00
   42  1.067    12.69     1.10     0.70     0.00    -0.00
   43  1.054    14.26     0.30     0.10     0.00     0.00
   44  1.079    10.14     1.80     0.30     0.00    -0.00
   45  1.063     9.10     0.00     0.00    -0.00     0.00
   46  1.105    10.10     0.00     0.00     0.00    -0.00
   47  1.095    10.29     4.50     1.70     0.00    -0.00
   48  1.093    10.48     0.00     0.00     0.00     0.00
   49  1.098    10.84     2.70     1.30     0.00    -0.00
   50  1.092    11.51     3.10     1.60     0.00     0.00
   51  1.088    12.90     2.70     0.80     0.00    -0.00
   52  1.059    19.69     0.70     0.30    -0.00     0.00
   53  1.063    19.17     3.00     1.50     0.00    -0.00
   54  1.064    18.80     0.60     0.20     0.00     0.00
   55  1.066    18.50     1.00     0.50    -0.00     0.00
   56  1.072    11.98     1.10     0.30     0.00    -0.00
   57  1.074    11.58     1.00     0.30     0.00    -0.00

             Total->    185.50    51.90   233.73    95.45

  CORRENTE e FLUXO DE POTÊNCIA POR LINHA
-----------------------------------------------------------------------------------------
 De Para  I(pu) Ângulo     FLUXO DIRETO     FLUXO INVERSO      PERDAS
                (grau)     MW   -> MVar     MW   <- MVar    MW      MVar 
-----------------------------------------------------------------------------------------
  1   2   1.372 -145.31 -117.30   81.20  118.96  -89.39    1.65   -8.20
  2   3   1.298 -151.47 -119.36   59.19  124.53  -52.97    5.17    6.23
  3   4   1.197 -150.28 -113.49   43.40  115.11  -42.00    1.62    1.40
  4   5   0.530 -140.42  -47.28   25.34   49.07  -24.19    1.80    1.16
  4   6   0.759 -149.39  -72.56   25.30   75.07  -20.20    2.52    5.10
  6   7   0.635 -149.68  -62.66   13.60   63.47  -12.27    0.81    1.33
  6   8   0.777 -146.31  -75.63   21.15   77.71  -15.29    2.08    5.86
  8   9   2.535   33.86  252.31  -35.15 -245.97   61.97    6.34   26.82
  9  10   0.537   32.82   52.26  -13.34  -51.21   13.63    1.04    0.29
  9  11   0.779   34.58   75.24  -21.69  -73.68   24.60    1.55    2.91
  9  12   0.438   36.67   41.84  -13.73  -40.65   11.25    1.19   -2.48
  9  13   0.742   33.81   71.92  -19.70  -69.31   24.17    2.61    4.48
 13  14   0.573   25.36   55.91  -13.73  -55.48   14.04    0.43    0.31
 13  15   0.675   34.03   62.72  -25.94  -61.51   27.51    1.21    1.57
  1  15   1.571 -155.67 -148.92   67.33  153.44  -54.63    4.52   12.70
  1  16   0.654 -157.49  -62.87   26.06   64.88  -22.72    2.01    3.34
  1  17   0.639 -156.24  -60.78   26.76   61.77  -25.32    0.99    1.43
  3  15   0.228   17.57   22.86   -3.53  -22.78   -1.79    0.08   -5.32
  4  18   0.035   65.74    2.07   -2.89   -2.07    2.95   -0.00    0.06
  4  18   0.063   76.64    2.65   -5.75   -2.65    5.91    0.00    0.16
  5   6   0.556 -139.34  -50.97   23.59   51.92  -22.85    0.94    0.74
  7   8   0.992 -141.70  -96.10   28.41   97.48  -23.33    1.38    5.08
 10  12   0.299   37.60   27.51  -12.43  -27.27   10.15    0.24   -2.27
 11  13   0.695   31.06   66.97  -19.82  -65.90   21.42    1.07    1.61
 12  13   0.160  -99.41   -5.72   15.22    5.78  -21.18    0.06   -5.96
 12  16   0.740   26.74   72.36  -20.14  -71.38   22.32    0.98    2.18
 12  17   0.718   27.12   70.08  -20.01  -68.07   24.12    2.01    4.11
 14  15   0.624   39.70   54.44  -30.96  -53.78   31.56    0.66    0.60
 18  19   0.010  -43.02    0.62    0.85   -0.62   -0.85    0.00    0.01
 19  20   0.007  -70.17    0.12    0.75   -0.12   -0.74    0.00    0.00
 21  20   0.006   85.00    0.18   -0.64   -0.18    0.64   -0.00    0.00
 21  22   0.006  -95.00   -0.18    0.64    0.18   -0.64    0.00    0.00
 22  23   0.160 -142.78  -15.61    7.70   15.63   -7.66    0.03    0.04
 23  24   0.166 -144.88  -16.53    7.36   17.00   -7.64    0.47   -0.27
 24  25   0.033   70.17    1.99   -2.99   -1.99    3.12    0.00    0.13
 24  25   0.031   70.17    1.91   -2.87   -1.91    3.00   -0.00    0.12
 24  26   0.227 -133.36  -20.90   13.50   20.90  -13.23   -0.00    0.27
 26  27   0.237 -133.36  -20.90   13.23   21.83  -11.81    0.93    1.43
 27  28   0.248 -135.02  -23.23   11.71   23.61  -11.12    0.38    0.59
 28  29   0.253 -136.25  -24.31   10.82   24.58  -10.44    0.27    0.38
  7  29   0.360   48.16   32.63  -16.14  -32.63   16.93   -0.00    0.79
 25  30   0.028   -3.87    3.00    0.89   -2.99   -0.88    0.01    0.02
 30  31   0.023   -0.57    2.49    0.58   -2.47   -0.55    0.02    0.03
 31  32   0.014    6.52    1.57    0.15   -1.56   -0.14    0.01    0.02
 32  33   0.006  -15.09    0.60    0.30   -0.60   -0.30    0.00    0.00
 34  32   0.007 -149.30   -0.76    0.27    0.76   -0.26    0.00    0.01
 34  35   0.007   30.70    0.76   -0.27   -0.76   -0.10    0.00   -0.37
 35  36   0.003  126.39   -0.14   -0.30    0.14    0.11    0.00   -0.19
 36  37   0.049   87.68    1.22   -5.09   -1.21    5.10    0.01    0.01
 37  38   0.071   85.80    2.01   -7.41   -1.98    7.22    0.03   -0.19
 37  39   0.023  -98.23   -0.81    2.31    0.81   -2.31    0.00    0.00
 36  40   0.048  -94.13   -1.36    4.98    1.36   -4.97    0.01    0.01
 22  38   0.156   35.56   15.43   -7.06  -15.38    7.13    0.05    0.07
 11  41   0.033   47.75    2.80   -1.83   -2.80    1.90   -0.00    0.08
 41  42   0.037   46.50    3.33   -2.16   -3.30    2.21    0.03    0.05
 41  43   0.045 -125.22   -3.61    3.17    3.61   -3.09    0.00    0.08
 38  44   0.195   -0.24   20.77    4.01  -20.66   -4.02    0.11   -0.01
 15  45   0.188  177.64  -18.66   -3.45   18.66    3.78   -0.00    0.33
 14  46   0.161  -81.91   -0.56   16.12    0.56  -15.97   -0.00    0.15
 46  47   0.145  -81.91   -0.56   15.97    0.61  -16.21    0.05   -0.24
 47  48   0.140  -99.11   -5.11   14.51    5.15  -14.46    0.04    0.05
 48  49   0.056 -175.23   -6.08   -0.61    6.10    0.07    0.03   -0.54
 49  50   0.095 -110.19   -5.39    8.96    5.46   -8.84    0.07    0.12
 50  51   0.103 -128.26   -8.56    7.24    8.71   -7.01    0.15    0.23
 10  51   0.128   41.46   11.41   -6.11  -11.41    6.21    0.00    0.10
 13  49   0.169  -50.03    8.09   14.96   -8.09  -14.52   -0.00    0.44
 29  52   0.084   71.86    5.55   -6.89   -5.45    7.02    0.10    0.13
 52  53   0.082   76.70    4.75   -7.32   -4.70    7.39    0.05    0.07
 53  54   0.023   65.34    1.70   -1.77   -1.69    1.78    0.01    0.01
 54  55   0.021   80.02    1.09   -1.98   -1.08    1.99    0.01    0.01
 11  43   0.049   51.63    3.91   -2.96   -3.91    2.99   -0.00    0.03
 44  45   0.178   -1.01   18.86    3.72  -18.66   -3.78    0.20   -0.06
 40  56   0.048  -94.13   -1.36    4.97    1.36   -4.72   -0.00    0.25
 56  41   0.037 -109.82   -2.10    3.39    2.18   -3.31    0.08    0.08
 56  42   0.034 -114.43   -2.18    2.95    2.20   -2.91    0.02    0.04
 39  57   0.023  -98.23   -0.81    2.31    0.81   -2.24   -0.00    0.07
 57  56   0.025 -121.38   -1.81    1.94    1.82   -1.92    0.01    0.02
 38  49   0.059  146.62   -4.64   -4.49    4.68    4.19    0.04   -0.30
 38  48   0.138  104.01   -0.87  -14.98    0.93   15.07    0.06    0.09
  9  55   0.025  -73.36   -0.08    2.50    0.08   -2.49    0.00    0.01
                                        Total Perdas ->   48.23   69.38

  ***************** RESULTADOS - FLUXO DE POTÊNCIA **********************

                      MÉTODO NEWTON RAPHSON              


#####   HORÁRIO   => 04:00
#####   INTERVALO => 4

  NUMEROS DE BARRAS:	57
  NUMEROS DE LINHAS:	80
  QT. ITERAÇÕES:	4

  TENSÃO E POTÊNCIA POR BARRA
 -----------------------------------------------------------
 Barra Tensão  Ângulo      --Carga--       --Gerador-- 
       (pu)    (grau)      MW      MVar     MW      MVar  
 ------------------------------------------------------------
    1  1.040     0.00    17.10     5.30  -301.98   189.44
    2  1.025     2.04     0.90    27.30     0.00   -17.00
    3  1.018     8.08    12.70     6.50    91.50   -10.00
    4  1.015     9.96     0.00     0.00    -0.00    -0.00
    5  1.010    13.41     4.00     1.20     0.00    -0.00
    6  1.009    15.24    23.30     0.60    -0.00    -8.00
    7  1.007    18.50     0.00     0.00     0.00    -0.00
    8  1.005    22.45    46.50     6.80   450.00   -58.39
    9  1.004    15.44     7.30     1.60    -0.00    -3.00
   10  1.006    10.43    12.60     5.00     0.00    -0.00
   11  1.003    11.85     0.00     0.00     0.00    -0.00
   12  1.015     8.69   116.90     7.40   166.20    10.68
   13  1.004     9.23     5.60     0.70     0.00    -0.00
   14  1.002     8.03     3.30     1.60     0.00    -0.00
   15  1.013     6.70     6.80     1.60     0.00    -0.00
   16  1.020     5.74    13.30     0.90     0.00     0.00
   17  1.027     2.73    13.00     2.50     0.00     0.00
   18  1.057     8.68     8.40     3.00     0.00     0.00
   19  1.043     8.29     1.00     0.20     0.00    -0.00
   20  1.038     8.23     0.70     0.30     0.00    -0.00
   21  1.079     8.21     0.00     0.00    -0.00     0.00
   22  1.078     8.22     0.00     0.00     0.00     0.00
   23  1.078     8.34     2.00     0.70     0.00     0.00
   24  1.083    10.60     0.00     0.00     0.00     0.00
   25  1.108     8.91     2.00     1.00     0.00     0.00
   26  1.033    11.10     0.00     0.00    -0.00    -0.00
   27  1.039    14.75     2.90     0.20    -0.00     0.00
   28  1.044    16.24     1.40     0.70    -0.00     0.00
   29  1.049    17.20     5.30     0.80     0.00     0.00
   30  1.100     8.64     1.10     0.60     0.00    -0.00
   31  1.088     8.13     1.80     0.90     0.00    -0.00
   32  1.084     7.79     0.50     0.20     0.00    -0.00
   33  1.083     7.78     1.20     0.60     0.00    -0.00
   34  1.064     8.15     0.00     0.00    -0.00    -0.00
   35  1.064     8.16     1.90     0.90     0.00    -0.00
   36  1.066     8.21     0.00     0.00    -0.00     0.00
   37  1.069     8.16     0.00     0.00     0.00    -0.00
   38  1.078     7.99     4.30     2.20     0.00     0.00
   39  1.068     8.19     0.00     0.00    -0.00     0.00
   40  1.064     8.29     0.00     0.00    -0.00     0.00
   41  1.058    10.26     2.00     0.90     0.00     0.00
   42  1.053     9.32     2.20     1.40     0.00    -0.00
   43  1.049    11.38     0.60     0.30     0.00     0.00
   44  1.073     7.66     3.70     0.60     0.00    -0.00
   45  1.064     7.19     0.00     0.00    -0.00     0.00
   46  1.102     7.76     0.00     0.00     0.00     0.00
   47  1.089     7.69     9.20     3.60     0.00    -0.00
   48  1.086     7.83     0.00     0.00     0.00     0.00
   49  1.091     8.10     5.60     2.60     0.00    -0.00
   50  1.083     8.59     6.50     3.30     0.00    -0.00
   51  1.084     9.92     5.60     1.60     0.00    -0.00
   52  1.048    16.06     1.50     0.70     0.00     0.00
   53  1.050    15.50     6.20     3.10     0.00    -0.00
   54  1.055    15.29     1.30     0.40     0.00    -0.00
   55  1.063    15.22     2.10     1.10    -0.00     0.00
   56  1.058     8.61     2.40     0.70     0.00    -0.00
   57  1.059     8.18     2.10     0.60     0.00    -0.00

             Total->    368.80   102.20   405.72   103.73

  CORRENTE e FLUXO DE POTÊNCIA POR LINHA
-----------------------------------------------------------------------------------------
 De Para  I(pu) Ângulo     FLUXO DIRETO     FLUXO INVERSO      PERDAS
                (grau)     MW   -> MVar     MW   <- MVar    MW      MVar 
-----------------------------------------------------------------------------------------
  1   2   1.320 -141.90 -108.04   84.71  109.58  -93.26    1.54   -8.55
  2   3   1.179 -154.06 -110.48   48.96  114.75  -45.31    4.27    3.65
  3   4   0.872 -149.12  -81.86   34.42   82.72  -35.52    0.87   -1.09
  4   5   0.411 -139.81  -36.01   20.99   37.10  -21.33    1.09   -0.34
  4   6   0.599 -149.45  -56.89   21.36   58.46  -19.51    1.58    1.86
  6   7   0.549 -151.61  -54.00   12.61   54.61  -12.30    0.61    0.31
  6   8   0.712 -149.97  -69.50   18.35   71.25  -14.18    1.75    4.17
  8   9   2.389   30.00  238.04  -31.56 -232.40   54.78    5.64   23.22
  9  10   0.515   29.06   50.26  -12.18  -49.30   12.12    0.96   -0.06
  9  11   0.712   30.94   68.81  -19.09  -67.51   21.15    1.30    2.07
  9  12   0.407   35.25   38.41  -13.83  -37.40   10.58    1.01   -3.25
  9  13   0.663   31.26   64.05  -18.14  -61.97   20.90    2.08    2.75
 13  14   0.466   21.72   45.70  -10.12  -45.41    9.95    0.29   -0.17
 13  15   0.504   37.23   44.70  -23.76  -44.03   23.59    0.67   -0.18
  1  15   1.304 -154.76 -122.65   57.83  125.78  -52.22    3.13    5.60
  1  16   0.486 -156.56  -46.39   20.11   47.52  -20.79    1.13   -0.68
  1  17   0.454 -152.91  -42.00   21.49   42.51  -22.25    0.50   -0.76
  3  15   0.454   15.04   45.91   -5.61  -45.58    1.08    0.33   -4.53
  4  18   0.049   35.07    4.46   -2.09   -4.46    2.21   -0.00    0.12
  4  18   0.073   49.66    5.71   -4.74   -5.71    4.96    0.00    0.22
  5   6   0.453 -140.50  -41.10   20.13   41.73  -20.06    0.63    0.07
  7   8   0.953 -147.03  -92.95   23.98   94.22  -19.44    1.27    4.53
 10  12   0.257   42.24   21.99  -13.64  -21.82   11.08    0.17   -2.56
 11  13   0.602   29.66   57.52  -18.48  -56.72   19.22    0.80    0.74
 12  13   0.212 -108.58   -9.87   19.15    9.97  -24.97    0.10   -5.82
 12  16   0.634   25.75   61.54  -18.89  -60.82   19.89    0.72    1.00
 12  17   0.589   26.84   56.85  -18.64  -55.51   19.75    1.35    1.11
 14  15   0.451   49.04   34.09  -29.64  -33.75   29.23    0.34   -0.42
 18  19   0.019  -20.78    1.78    1.00   -1.76   -0.98    0.02    0.03
 19  20   0.010  -37.39    0.76    0.78   -0.76   -0.77    0.00    0.00
 21  20   0.004  105.11   -0.06   -0.47    0.06    0.47    0.00    0.00
 21  22   0.004  -74.89    0.06    0.47   -0.06   -0.47    0.00    0.00
 22  23   0.126 -139.01  -11.38    7.32   11.39   -7.30    0.02    0.02
 23  24   0.138 -145.42  -13.39    6.60   13.72   -7.08    0.33   -0.48
 24  25   0.035   47.46    3.00   -2.25   -3.00    2.39    0.00    0.14
 24  25   0.033   47.46    2.88   -2.16   -2.88    2.29    0.00    0.14
 24  26   0.210 -139.04  -19.60   11.48   19.60  -11.25   -0.00    0.23
 26  27   0.219 -139.04  -19.60   11.25   20.39  -10.04    0.79    1.22
 27  28   0.243 -142.35  -23.29    9.84   23.65   -9.27    0.37    0.56
 28  29   0.254 -144.87  -25.05    8.57   25.32   -8.19    0.27    0.38
  7  29   0.398   35.44   38.34  -11.67  -38.34   12.63   -0.00    0.96
 25  30   0.038  -13.04    3.87    1.56   -3.86   -1.53    0.02    0.03
 30  31   0.026  -10.06    2.76    0.93   -2.73   -0.90    0.02    0.03
 31  32   0.009    8.24    0.93   -0.00   -0.93    0.01    0.00    0.01
 32  33   0.012  -18.78    1.20    0.60   -1.20   -0.60    0.00    0.00
 34  32   0.011  -38.51    0.77    0.82   -0.77   -0.81    0.00    0.01
 34  35   0.011  141.49   -0.77   -0.82    0.77    0.46    0.00   -0.36
 35  36   0.028  161.25   -2.67   -1.36    2.68    1.18    0.00   -0.18
 36  37   0.061  117.48   -2.13   -6.10    2.14    6.11    0.01    0.01
 37  38   0.083  112.27   -2.16   -8.59    2.20    8.42    0.04   -0.16
 37  39   0.023  -81.47    0.02    2.48   -0.02   -2.47    0.00    0.00
 36  40   0.046  -88.09   -0.54    4.92    0.55   -4.91    0.01    0.01
 22  38   0.124   39.15   11.44   -6.85  -11.41    6.90    0.03    0.05
 11  41   0.042   25.30    4.12   -0.98   -4.12    1.11   -0.00    0.12
 41  42   0.044   25.92    4.47   -1.25   -4.43    1.32    0.04    0.07
 41  43   0.054 -147.47   -5.28    2.16    5.28   -2.04    0.00    0.12
 38  44   0.125   -6.92   13.02    3.46  -12.97   -3.60    0.05   -0.14
 15  45   0.097  167.18   -9.22   -3.27    9.22    3.36   -0.00    0.09
 14  46   0.197  -58.05    8.02   18.09   -8.02  -17.86   -0.00    0.23
 46  47   0.178  -58.05    8.02   17.86   -7.95  -18.02    0.07   -0.17
 47  48   0.133  -87.27   -1.25   14.42    1.28  -14.38    0.03    0.04
 48  49   0.047  171.60   -4.93   -1.44    4.95    0.89    0.02   -0.54
 49  50   0.084  -97.26   -2.42    8.82    2.48   -8.73    0.06    0.09
 50  51   0.097 -140.26   -8.98    5.43    9.11   -5.22    0.13    0.21
 10  51   0.150   23.75   14.71   -3.48  -14.71    3.62   -0.00    0.14
 13  49   0.220  -45.61   12.71   18.05  -12.71  -17.31    0.00    0.74
 29  52   0.089   51.35    7.72   -5.24   -7.61    5.38    0.11    0.15
 52  53   0.082   60.96    6.11   -6.08   -6.05    6.15    0.05    0.07
 53  54   0.022  109.12   -0.15   -2.31    0.16    2.32    0.01    0.01
 54  55   0.029  133.43   -1.46   -2.72    1.47    2.74    0.01    0.02
 11  43   0.061   27.89    5.88   -1.69   -5.88    1.74    0.00    0.05
 44  45   0.091  -10.29    9.27    3.00   -9.22   -3.36    0.05   -0.35
 40  56   0.046  -88.09   -0.55    4.91    0.55   -4.67    0.00    0.24
 56  41   0.039 -124.82   -2.84    3.00    2.92   -2.91    0.08    0.08
 56  42   0.033 -120.04   -2.21    2.76    2.23   -2.72    0.02    0.04
 39  57   0.023  -81.47    0.02    2.47   -0.02   -2.40    0.00    0.07
 57  56   0.026 -130.96   -2.08    1.80    2.10   -1.79    0.01    0.02
 38  49   0.065  138.68   -4.54   -5.28    4.59    5.00    0.05   -0.28
 38  48   0.149  110.81   -3.57  -15.71    3.64   15.82    0.07    0.11
  9  55   0.052  -31.87    3.57    3.87   -3.57   -3.84   -0.00    0.03
                                        Total Perdas ->   36.92   26.90

  ***************** RESULTADOS - FLUXO DE POTÊNCIA **********************

                      MÉTODO NEWTON RAPHSON              


#####   HORÁRIO   => 05:00
#####   INTERVALO => 5

  NUMEROS DE BARRAS:	57
  NUMEROS DE LINHAS:	80
  QT. ITERAÇÕES:	4

  TENSÃO E POTÊNCIA POR BARRA
 -----------------------------------------------------------
 Barra Tensão  Ângulo      --Carga--       --Gerador-- 
       (pu)    (grau)      MW      MVar     MW      MVar  
 ------------------------------------------------------------
    1  1.040     0.00    25.80     8.00   196.23    62.10
    2  1.024    -0.51     1.40    41.40     0.00   -17.00
    3  1.014    -2.71    19.30     9.90    40.00   -10.00
    4  1.012    -3.88     0.00     0.00     0.00     0.00
    5  1.003    -5.24     6.10     1.90     0.00    -0.00
    6  1.000    -5.68    35.30     0.90     0.00    -8.00
    7  1.002    -5.87     0.00     0.00     0.00    -0.00
    8  1.005    -5.21    70.50    10.30    81.30     7.88
    9  1.006    -4.89     6.10     1.30    -0.00    -3.00
   10  1.005    -4.72    12.50     5.00     0.00    -0.00
   11  1.005    -4.61     0.00     0.00     0.00    -0.00
   12  1.015    -2.84   177.20    11.30   235.40    -2.96
   13  1.006    -3.93     8.50     1.10     0.00    -0.00
   14  1.004    -3.92     4.90     2.50     0.00    -0.00
   15  1.017    -3.11    10.30     2.30     0.00     0.00
   16  1.021    -2.69    20.20     1.40     0.00     0.00
   17  1.028    -1.77    19.70     3.80     0.00     0.00
   18  1.050    -5.76    12.80     4.60     0.00     0.00
   19  1.035    -6.23     1.60     0.30     0.00    -0.00
   20  1.032    -6.21     1.10     0.50     0.00    -0.00
   21  1.075    -5.90     0.00     0.00    -0.00     0.00
   22  1.075    -5.85     0.00     0.00     0.00     0.00
   23  1.075    -5.93     3.00     1.00     0.00     0.00
   24  1.073    -6.94     0.00     0.00     0.00    -0.00
   25  1.088    -8.73     3.00     1.50     0.00     0.00
   26  1.029    -6.94     0.00     0.00    -0.00     0.00
   27  1.029    -6.94     4.40     0.20     0.00    -0.00
   28  1.032    -6.72     2.20     1.10     0.00     0.00
   29  1.036    -6.54     8.00     1.20     0.00    -0.00
   30  1.079    -8.85     1.70     0.80     0.00    -0.00
   31  1.066    -8.87     2.70     1.40     0.00    -0.00
   32  1.069    -8.22     0.80     0.40     0.00     0.00
   33  1.068    -8.24     1.80     0.90     0.00    -0.00
   34  1.050    -6.32     0.00     0.00    -0.00    -0.00
   35  1.053    -6.18     2.80     1.40     0.00    -0.00
   36  1.057    -6.04     0.00     0.00    -0.00     0.00
   37  1.061    -5.96     0.00     0.00     0.00     0.00
   38  1.076    -5.68     6.60     3.30     0.00     0.00
   39  1.060    -5.98     0.00     0.00    -0.00    -0.00
   40  1.054    -6.02     0.00     0.00    -0.00     0.00
   41  1.053    -6.12     3.00     1.40     0.00     0.00
   42  1.046    -6.86     3.30     2.10     0.00    -0.00
   43  1.050    -5.07     0.90     0.50     0.00     0.00
   44  1.074    -5.24     5.60     0.80     0.00     0.00
   45  1.073    -3.96     0.00     0.00     0.00     0.00
   46  1.105    -4.83     0.00     0.00     0.00     0.00
   47  1.090    -5.52    14.00     5.50     0.00     0.00
   48  1.086    -5.57     0.00     0.00    -0.00    -0.00
   49  1.090    -5.64     8.50     4.00     0.00    -0.00
   50  1.078    -5.74     9.90     4.90     0.00    -0.00
   51  1.080    -5.17     8.50     2.50     0.00    -0.00
   52  1.032    -7.14     2.30     1.00     0.00    -0.00
   53  1.033    -7.37     9.40     4.70     0.00    -0.00
   54  1.048    -6.57     1.90     0.70     0.00    -0.00
   55  1.066    -5.65     3.20     1.60    -0.00     0.00
   56  1.053    -7.23     3.60     1.00     0.00    -0.00
   57  1.054    -7.47     3.10     0.90     0.00    -0.00

             Total->    547.50   151.30   552.93    29.03

  CORRENTE e FLUXO DE POTÊNCIA POR LINHA
-----------------------------------------------------------------------------------------
 De Para  I(pu) Ângulo     FLUXO DIRETO     FLUXO INVERSO      PERDAS
                (grau)     MW   -> MVar     MW   <- MVar    MW      MVar 
-----------------------------------------------------------------------------------------
  1   2   0.585  -38.78   47.41   38.09  -47.08  -50.72    0.33  -12.63
  2   3   0.452    9.03   45.68   -7.68  -45.09    0.88    0.60   -6.80
  3   4   0.549    8.18   54.66  -10.51  -54.32    7.70    0.33   -2.81
  4   5   0.176    4.59   17.60   -2.62  -17.41    0.41    0.19   -2.22
  4   6   0.217   -3.43   21.96   -0.17  -21.76   -2.65    0.20   -2.82
  6   7   0.045   44.78    2.84   -3.44   -2.84    0.69    0.00   -2.75
  6   8   0.065  136.56   -5.11   -3.96    5.12   -0.72    0.01   -4.68
  8   9   0.110  165.28  -10.87   -1.82   10.88   -3.66    0.01   -5.48
  9  10   0.023  130.89   -1.65   -1.60    1.65   -2.84    0.00   -4.44
  9  11   0.054 -176.44   -5.39    0.80    5.40   -2.98    0.01   -2.18
  9  12   0.131  156.69  -12.45   -4.15   12.55   -3.28    0.10   -7.43
  9  13   0.099 -180.00   -9.90    0.85    9.95   -4.79    0.05   -3.94
 13  14   0.036  -79.91    0.88    3.52   -0.88   -4.62    0.00   -1.10
 13  15   0.202  154.40  -18.84   -7.49   18.95    5.47    0.11   -2.01
  1  15   0.642   -8.84   66.00   10.27  -65.24  -16.85    0.76   -6.58
  1  16   0.243   -4.11   25.21    1.81  -24.93   -6.36    0.28   -4.54
  1  17   0.308   -7.04   31.81    3.93  -31.58   -5.94    0.23   -2.02
  3  15   0.149   39.97   11.13  -10.27  -11.10    4.75    0.03   -5.52
  4  18   0.065    7.07    6.47   -1.25   -6.47    1.47    0.00    0.22
  4  18   0.090   19.92    8.29   -3.66   -8.29    3.98   -0.00    0.33
  5   6   0.115    6.29   11.31   -2.31  -11.27    1.15    0.04   -1.16
  7   8   0.166  167.62  -16.51   -1.88   16.55    0.12    0.04   -1.76
 10  12   0.269  168.63  -26.90   -3.14   27.10    0.70    0.20   -2.44
 11  13   0.154 -173.29  -15.14    3.03   15.20   -4.76    0.05   -1.72
 12  13   0.347   -6.60   35.10    2.31  -34.88   -7.76    0.22   -5.46
 12  16   0.084  120.62   -4.72   -7.15    4.73    4.96    0.01   -2.19
 12  17   0.135  147.14  -11.82   -6.83   11.88    2.14    0.06   -4.69
 14  15   0.335  151.65  -30.60  -13.90   30.79   12.99    0.19   -0.91
 18  19   0.021  -32.09    1.96    0.97   -1.94   -0.94    0.02    0.03
 19  20   0.007  -68.28    0.34    0.64   -0.34   -0.64    0.00    0.00
 21  20   0.007    4.06    0.76   -0.13   -0.76    0.14   -0.00    0.00
 21  22   0.007 -175.94   -0.76    0.13    0.76   -0.13    0.00    0.00
 22  23   0.087    9.49    9.04   -2.48   -9.03    2.49    0.01    0.01
 23  24   0.065   24.13    6.03   -3.49   -5.97    2.62    0.07   -0.87
 24  25   0.031   15.76    3.08   -1.29   -3.08    1.40    0.00    0.11
 24  25   0.030   15.76    2.96   -1.24   -2.96    1.35    0.00    0.11
 24  26   0.001  119.47   -0.07   -0.10    0.07    0.10   -0.00    0.00
 26  27   0.001  119.48   -0.07   -0.10    0.07    0.10    0.00    0.00
 27  28   0.044  169.27   -4.47   -0.30    4.48    0.31    0.01    0.02
 28  29   0.066  161.33   -6.68   -1.41    6.70    1.44    0.02    0.03
  7  29   0.193   -9.42   19.35    1.20  -19.35   -0.97    0.00    0.23
 25  30   0.038  -50.61    3.04    2.73   -3.02   -2.70    0.02    0.03
 30  31   0.021  -64.00    1.32    1.90   -1.31   -1.88    0.01    0.02
 31  32   0.014 -170.04   -1.39    0.48    1.40   -0.46    0.01    0.01
 32  33   0.019  -34.80    1.80    0.90   -1.80   -0.90    0.00    0.00
 34  32   0.039  -20.07    4.00    0.98   -4.00   -0.84    0.00    0.14
 34  35   0.039  159.93   -4.00   -0.98    4.01    0.64    0.01   -0.34
 35  36   0.068  157.16   -6.81   -2.04    6.83    1.88    0.02   -0.15
 36  37   0.103  138.58   -8.89   -6.32    8.93    6.36    0.03    0.04
 37  38   0.132  136.32  -11.11   -8.59   11.22    8.54    0.11   -0.05
 37  39   0.029  -51.61    2.19    2.24   -2.18   -2.23    0.00    0.00
 36  40   0.046  -71.09    2.06    4.43   -2.06   -4.42    0.01    0.01
 22  38   0.094 -170.92   -9.80    2.61    9.82   -2.59    0.02    0.03
 11  41   0.039   -5.80    3.92    0.08   -3.92    0.02    0.00    0.10
 41  42   0.037   -2.57    3.90   -0.24   -3.87    0.29    0.03    0.05
 41  43   0.047 -177.19   -4.93    0.77    4.93   -0.68    0.00    0.09
 38  44   0.132 -143.28  -10.47    9.56   10.52   -9.69    0.05   -0.13
 15  45   0.182   24.89   16.31   -8.67  -16.31    8.98    0.00    0.31
 14  46   0.309  -35.01   26.58   16.03  -26.58  -15.46    0.00    0.57
 46  47   0.278  -35.01   26.58   15.46  -26.40  -15.31    0.18    0.14
 47  48   0.145  -43.88   12.40    9.81  -12.36   -9.76    0.04    0.05
 48  49   0.031   97.67   -0.78   -3.32    0.79    2.76    0.01   -0.56
 49  50   0.080  -54.90    5.73    6.65   -5.67   -6.56    0.05    0.08
 50  51   0.042 -164.25   -4.23    1.66    4.25   -1.63    0.02    0.04
 10  51   0.127   -9.09   12.75    0.97  -12.75   -0.87   -0.00    0.10
 13  49   0.277  -50.36   19.19   20.17  -19.19  -19.00    0.00    1.17
 29  52   0.048   13.21    4.65   -1.67   -4.61    1.71    0.03    0.04
 52  53   0.035   42.38    2.31   -2.71   -2.30    2.72    0.01    0.01
 53  54   0.069  167.00   -7.10   -0.70    7.19    0.81    0.09    0.11
 54  55   0.088  164.00   -9.09   -1.51    9.22    1.69    0.13    0.18
 11  43   0.058   -3.28    5.83   -0.13   -5.83    0.18    0.00    0.05
 44  45   0.171 -156.36  -16.12    8.89   16.31   -8.98    0.19   -0.09
 40  56   0.046  -71.09    2.06    4.42   -2.06   -4.19    0.00    0.23
 56  41   0.026 -140.96   -1.90    1.99    1.94   -1.95    0.04    0.04
 56  42   0.024 -110.30   -0.56    2.41    0.57   -2.39    0.01    0.02
 39  57   0.029  -51.61    2.18    2.23   -2.18   -2.12    0.00    0.11
 57  56   0.014 -134.41   -0.92    1.22    0.92   -1.21    0.00    0.01
 38  49   0.067  119.42   -4.13   -5.87    4.18    5.60    0.05   -0.28
 38  48   0.171  129.56  -13.05  -12.94   13.14   13.08    0.09    0.14
  9  55   0.128  -20.46   12.42    3.46  -12.42   -3.29    0.00    0.17
                                        Total Perdas ->    5.43  -97.54

  ***************** RESULTADOS - FLUXO DE POTÊNCIA **********************

                      MÉTODO NEWTON RAPHSON              


#####   HORÁRIO   => 06:00
#####   INTERVALO => 6

  NUMEROS DE BARRAS:	57
  NUMEROS DE LINHAS:	80
  QT. ITERAÇÕES:	5

  TENSÃO E POTÊNCIA POR BARRA
 -----------------------------------------------------------
 Barra Tensão  Ângulo      --Carga--       --Gerador-- 
       (pu)    (grau)      MW      MVar     MW      MVar  
 ------------------------------------------------------------
    1  1.040     0.00    43.50    13.40   -89.78   172.85
    2  1.019     2.30     2.40    69.50    -0.00   -17.00
    3  1.035     8.47    32.40    16.60   440.00   -10.00
    4  1.023     6.76     0.00     0.00    -0.00    -0.00
    5  1.005     4.84    10.30     3.20     0.00    -0.00
    6  1.000     4.24    59.30     1.60    -0.00    -8.00
    7  0.998     4.00     0.00     0.00     0.00    -0.00
    8  1.005     5.78   118.50    17.40   300.00     9.97
    9  0.997     2.25    36.30     7.80     0.00    -3.00
   10  0.995    -0.33    12.80     5.10    -0.00     0.00
   11  0.994     1.23     0.00     0.00     0.00     0.00
   12  1.015     0.07   297.80    19.00   310.00    50.43
   13  0.997     1.07    14.20     1.80     0.00     0.00
   14  0.994     1.35     8.30     4.20     0.00    -0.00
   15  1.012     2.85    17.40     4.00     0.00    -0.00
   16  1.018    -1.05    34.00     2.40     0.00     0.00
   17  1.024    -1.17    33.20     6.30     0.00     0.00
   18  1.053     3.19    21.50     7.70     0.00     0.00
   19  1.016     0.99     2.60     0.50     0.00    -0.00
   20  1.002     0.07     1.80     0.80     0.00    -0.00
   21  1.049    -0.90     0.00     0.00    -0.00     0.00
   22  1.048    -1.05     0.00     0.00    -0.00     0.00
   23  1.047    -1.08     5.00     1.70    -0.00     0.00
   24  1.041    -1.12     0.00     0.00    -0.00    -0.00
   25  1.040    -4.66     5.00     2.50     0.00     0.00
   26  0.997    -0.85     0.00     0.00     0.00     0.00
   27  1.010     0.71     7.30     0.40     0.00    -0.00
   28  1.020     1.65     3.60     1.80     0.00    -0.00
   29  1.029     2.30    13.40     2.10    -0.00     0.00
   30  1.025    -5.05     2.80     1.40     0.00    -0.00
   31  1.003    -5.54     4.60     2.30     0.00    -0.00
   32  1.012    -4.98     1.30     0.60     0.00     0.00
   33  1.010    -5.01     3.00     1.50     0.00    -0.00
   34  1.009    -1.99     0.00     0.00    -0.00    -0.00
   35  1.014    -1.81     4.70     2.40     0.00     0.00
   36  1.020    -1.61     0.00     0.00     0.00    -0.00
   37  1.028    -1.49     0.00     0.00     0.00     0.00
   38  1.050    -1.02    11.10     5.50     0.00     0.00
   39  1.026    -1.52     0.00     0.00     0.00    -0.00
   40  1.018    -1.61     0.00     0.00     0.00    -0.00
   41  1.028    -1.67     5.00     2.40     0.00    -0.00
   42  1.008    -2.85     5.60     3.50     0.00    -0.00
   43  1.034     0.35     1.60     0.80    -0.00     0.00
   44  1.051    -0.42     9.50     1.40     0.00     0.00
   45  1.063     1.41     0.00     0.00     0.00     0.00
   46  1.088     0.04     0.00     0.00     0.00     0.00
   47  1.066    -0.96    23.50     9.20     0.00     0.00
   48  1.061    -1.00     0.00     0.00    -0.00    -0.00
   49  1.067    -1.29    14.20     6.70     0.00    -0.00
   50  1.052    -1.68    16.60     8.30     0.00    -0.00
   51  1.066    -1.08    14.20     4.20     0.00    -0.00
   52  1.010     0.86     3.90     1.70     0.00    -0.00
   53  1.004     0.23    15.80     7.90     0.00    -0.00
   54  1.024     0.64     3.20     1.10     0.00    -0.00
   55  1.051     1.32     5.40     2.70     0.00     0.00
   56  1.013    -3.35     6.00     1.70     0.00     0.00
   57  1.011    -3.77     5.30     1.60     0.00     0.00

             Total->    937.90   256.70   960.22   195.25

  CORRENTE e FLUXO DE POTÊNCIA POR LINHA
-----------------------------------------------------------------------------------------
 De Para  I(pu) Ângulo     FLUXO DIRETO     FLUXO INVERSO      PERDAS
                (grau)     MW   -> MVar     MW   <- MVar    MW      MVar 
-----------------------------------------------------------------------------------------
  1   2   1.533 -137.69 -117.90  107.33  119.97 -114.03    2.07   -6.70
  2   3   1.230 -165.03 -122.37   27.53  126.95  -23.08    4.58    4.44
  3   4   0.858    5.57   88.66    4.50  -87.83   -5.82    0.83   -1.32
  4   5   0.264    5.33   27.01    0.67  -26.57   -2.40    0.44   -1.73
  4   6   0.322   -2.86   32.47    5.50  -32.01   -7.50    0.45   -2.00
  6   7   0.045    2.28    4.46    0.15   -4.45   -2.88    0.00   -2.73
  6   8   0.157  177.00  -15.55   -1.98   15.63   -2.33    0.08   -4.31
  8   9   1.211    8.91  121.53   -6.64 -120.08    8.54    1.45    1.90
  9  10   0.265   16.19   25.64   -6.36  -25.39    3.14    0.25   -3.23
  9  11   0.205   11.78   20.11   -3.38  -20.01    1.57    0.11   -1.81
  9  12   0.166   49.61   11.21  -12.18  -11.09    4.94    0.13   -7.23
  9  13   0.131   27.60   11.81   -5.60  -11.74    1.80    0.07   -3.79
 13  14   0.125 -127.13   -7.73    9.83    7.75  -10.84    0.02   -1.02
 13  15   0.383  171.62  -37.63   -6.27   38.02    5.20    0.39   -1.06
  1  15   0.595 -142.65  -49.18   37.53   49.88  -44.35    0.70   -6.82
  1  16   0.121  -25.96   11.31    5.51  -11.23  -10.91    0.08   -5.40
  1  17   0.233  -22.00   22.48    9.08  -22.35  -11.51    0.14   -2.43
  3  15   1.857   10.86  191.99   -8.02 -186.41   20.58    5.58   12.56
  4  18   0.122    3.23   12.43    0.77  -12.43    0.01    0.00    0.77
  4  18   0.156   10.78   15.92   -1.12  -15.92    2.12    0.00    1.00
  5   6   0.162    7.65   16.27   -0.80  -16.20   -0.28    0.08   -1.08
  7   8   0.442 -178.72  -44.07   -2.09   44.34    1.54    0.27   -0.55
 10  12   0.175  118.91   -8.50  -15.19    8.57   12.20    0.07   -2.99
 11  13   0.064   72.01    2.10   -6.02   -2.09    4.18    0.01   -1.84
 12  13   0.388 -118.93  -19.08   34.42   19.38  -39.53    0.31   -5.12
 12  16   0.247   24.24   22.88  -10.27  -22.77    8.51    0.11   -1.75
 12  17   0.145   42.15   10.92   -9.86  -10.85    5.21    0.07   -4.65
 14  15   0.565  163.55  -53.43  -17.15   53.97   17.39    0.54    0.24
 18  19   0.066   -7.22    6.85    1.26   -6.65   -0.96    0.20    0.30
 19  20   0.040   -5.49    4.05    0.46   -4.00   -0.39    0.05    0.07
 21  20   0.021 -169.38   -2.20    0.45    2.20   -0.41    0.00    0.04
 21  22   0.021   10.62    2.20   -0.45   -2.20    0.45    0.00    0.01
 22  23   0.066  -25.80    6.32    2.92   -6.32   -2.91    0.00    0.01
 23  24   0.017  -43.58    1.32    1.21   -1.31   -2.11    0.01   -0.90
 24  25   0.054   -3.85    5.66    0.27   -5.66    0.08   -0.00    0.35
 24  25   0.052   -3.85    5.44    0.26   -5.44    0.08    0.00    0.34
 24  26   0.095 -171.92   -9.78    1.58    9.78   -1.54    0.00    0.05
 26  27   0.099 -171.92   -9.78    1.54    9.94   -1.29    0.16    0.25
 27  28   0.171 -176.35  -17.24    0.89   17.42   -0.61    0.18    0.28
 28  29   0.207  178.41  -21.02   -1.19   21.20    1.44    0.18    0.25
  7  29   0.489   -1.86   48.52    4.98  -48.52   -3.53    0.00    1.45
 25  30   0.069  -36.06    6.09    3.72   -6.03   -3.62    0.06    0.10
 30  31   0.038  -39.61    3.23    2.22   -3.18   -2.15    0.05    0.07
 31  32   0.014  168.48   -1.42   -0.15    1.43    0.16    0.01    0.02
 32  33   0.033  -31.57    3.00    1.50   -3.00   -1.50    0.00    0.00
 34  32   0.062  -26.56    5.73    2.62   -5.73   -2.27    0.00    0.35
 34  35   0.062  153.44   -5.73   -2.62    5.75    2.32    0.02   -0.30
 35  36   0.113  153.87  -10.45   -4.72   10.51    4.63    0.05   -0.10
 36  37   0.158  143.95  -13.26   -9.09   13.33    9.18    0.07    0.09
 37  38   0.198  142.37  -16.41  -11.99   16.66   12.16    0.25    0.18
 37  39   0.041  -43.79    3.08    2.80   -3.08   -2.80    0.00    0.01
 36  40   0.051  -59.98    2.75    4.47   -2.74   -4.45    0.01    0.01
 22  38   0.051  139.69   -4.12   -3.37    4.13    3.38    0.00    0.01
 11  41   0.075  -13.65    7.21    1.92   -7.21   -1.53    0.00    0.39
 41  42   0.070  -15.04    7.05    1.68   -6.95   -1.50    0.10    0.17
 41  43   0.089  170.59   -9.10   -1.24    9.10    1.57    0.00    0.33
 38  44   0.171 -164.03  -17.14    5.24   17.22   -5.29    0.08   -0.05
 15  45   0.270    8.79   27.14   -2.82  -27.14    3.51    0.00    0.69
 14  46   0.446  -31.13   37.38   23.79  -37.38  -22.61   -0.00    1.18
 46  47   0.401  -31.13   37.38   22.61  -37.00  -21.88    0.37    0.73
 47  48   0.174  -44.15   13.50   12.68  -13.45  -12.61    0.05    0.07
 48  49   0.051   77.15    1.11   -5.29   -1.09    4.77    0.02   -0.51
 49  50   0.109  -33.04    9.88    6.11   -9.78   -5.96    0.09    0.15
 50  51   0.069  159.38   -6.82   -2.34    6.88    2.44    0.07    0.10
 10  51   0.223  -18.57   21.08    6.95  -21.08   -6.64   -0.00    0.31
 13  49   0.382  -46.67   25.61   28.19  -25.61  -25.96    0.00    2.23
 29  52   0.135    2.37   13.92   -0.02  -13.65    0.36    0.26    0.34
 52  53   0.099   12.78    9.75   -2.06   -9.68    2.15    0.07    0.10
 53  54   0.071  149.10   -6.12   -3.70    6.22    3.81    0.10    0.12
 54  55   0.104  153.08   -9.42   -4.91    9.60    5.16    0.19    0.24
 11  43   0.111  -12.12   10.70    2.54  -10.70   -2.37    0.00    0.17
 44  45   0.257 -172.15  -26.72    3.89   27.14   -3.51    0.41    0.37
 40  56   0.051  -59.98    2.74    4.45   -2.74   -4.16    0.00    0.29
...